%nprocshared=32
%chk=Y6-OPT-pbe1pbe.chk
%mem=100GB
# p opt pbe1pbe/aug-cc-pvtz 

OPT for Y6 DFT pbe1pbe BasicSet cc-pvtz

0 1
 C                     0.71423  -4.7893   -0.09332 
 C                    -0.7143   -4.78918   0.09751 
 C                    -1.4104   -3.54192   0.12749 
 C                    -0.71909  -2.2989    0.00929 
 C                     0.71907  -2.29892  -0.00771 
 C                     1.41035  -3.54207  -0.12458 
 C                     5.13914  -2.53953  -0.21056 
 C                     4.26722  -1.44444  -0.07364 
 C                     2.92038  -1.86266  -0.05843 
 C                     2.78233  -3.24711  -0.17811 
 S                     4.30004  -4.09606  -0.31831 
 C                     6.49273  -2.20333  -0.25023 
 C                     6.68332  -0.80183  -0.13881 
 S                     5.1236    0.0585    0.00779 
 C                     9.95272   2.9088    0.02955 
 C                     8.64598   3.40467   0.14633 
 C                     8.36124   4.75402   0.28932 
 C                     9.43375   5.62842   0.31532 
 C                     10.74321   5.1527    0.20061 
 C                     11.02726   3.80257   0.05729 
 C                     9.89362   1.42881  -0.10887 
 C                     8.48172   1.0469   -0.06719 
 C                     7.68569   2.28      0.09117 
 H                     7.34404   5.11521   0.37738 
 H                     12.06223   3.50603  -0.02595 
 C                     7.97603  -0.23852  -0.15494 
 H                     8.72335  -1.0131   -0.26154 
 C                     11.00449   0.6186   -0.2506 
 C                     12.33965   1.11702  -0.27683 
 N                     13.43781   1.48043  -0.30271 
 C                     10.95092  -0.79833  -0.38761 
 N                     10.95055  -1.95039  -0.5015 
 O                     6.47094   2.38032   0.16588 
 N                     1.66967  -1.27457   0.05426 
 N                     1.24707  -6.00053  -0.16315 
 N                    -1.24716  -6.00033   0.16861 
 S                    -0.00006  -7.07672   0.00326 
 C                     7.59709  -3.21273  -0.38925 
 H                     8.22434  -3.01368  -1.26142 
 H                     8.25493  -3.21435   0.48386 
 H                     7.18736  -4.21772  -0.49739 
 C                     1.53257   0.08394   0.60511 
 H                     2.53423   0.51627   0.5995 
 H                     0.942     0.69639  -0.07346 
 C                    -5.13917  -2.53926   0.21232 
 C                    -4.26724  -1.4443    0.07429 
 C                    -2.9204   -1.86255   0.05957 
 C                    -2.78237  -3.24688   0.18068 
 S                    -4.30008  -4.09567   0.3218 
 C                    -6.49277  -2.20301   0.25139 
 C                    -6.68334  -0.80163   0.13864 
 S                    -5.12361   0.05858  -0.00849 
 C                    -9.95269   2.90902  -0.03039 
 C                    -8.64582   3.40505  -0.14501 
 C                    -8.36089   4.75465  -0.2852 
 C                    -9.43334   5.62915  -0.31044 
 C                    -10.74292   5.15328  -0.19777 
 C                    -11.02716   3.80289  -0.05735 
 C                    -9.8938    1.42874   0.10499 
 C                    -8.48182   1.04696   0.06507 
 C                    -7.68563   2.28025  -0.09093 
 H                    -7.3436    5.11596  -0.37168 
 H                    -12.06222   3.50624   0.02442 
 C                    -7.9761   -0.2384    0.15352 
 H                    -8.72344  -1.013     0.25992 
 C                    -11.00496   0.61812   0.24206 
 C                    -12.34018   1.11648   0.26686 
 N                    -13.43837   1.47985   0.29149 
 C                    -10.9517  -0.79923   0.37472 
 N                    -10.95155  -1.95165   0.48494 
 O                    -6.47081   2.38062  -0.16458 
 N                    -1.66969  -1.27462  -0.05382 
 C                    -7.59718  -3.21212   0.39217 
 H                    -8.21737  -3.01746   1.27045 
 H                    -8.26184  -3.20785  -0.47567 
 H                    -7.1878   -4.21818   0.49124 
 C                    -1.53255   0.08346  -0.60569 
 H                    -2.53424   0.51573  -0.60064 
 H                    -0.94216   0.69647   0.07253 
 C                    -0.97471   0.14276  -2.04014 
 H                     0.03366  -0.28702  -2.0334 
 C                    -1.83095  -0.6661   -3.02221 
 H                    -1.89335  -1.71942  -2.7393 
 H                    -2.84944  -0.2682   -3.07531 
 H                    -1.40317  -0.61944  -4.0268 
 C                    -0.86596   1.6123   -2.47149 
 H                    -1.85195   2.08719  -2.50107 
 H                    -0.23502   2.19427  -1.79271 
 H                    -0.43206   1.68767  -3.47122 
 C                     0.97502   0.14432   2.03962 
 H                    -0.03332  -0.28553   2.03342 
 C                     1.83153  -0.66368   3.02215 
 H                     1.89391  -1.71724   2.74009 
 H                     2.85002  -0.26569   3.07467 
 H                     1.40399  -0.61621   4.02681 
 C                     0.86626   1.61419   2.46985 
 H                     0.23517   2.1956    1.79071 
 H                     0.43249   1.6903    3.46959 
 H                     1.85221   2.08916   2.49892 
 F                    -11.74666   6.04021  -0.22783 
 F                    -9.23501   6.94763  -0.44329 
 F                     9.23561   6.94664   0.45089 
 F                     11.74703   6.0395    0.2316 


